
**** 05/02/26 12:46:48 ******* PSpice Lite (April 2011) ******* ID# 10813 ****

 ** Profile: "SCHEMATIC1-a"  [ C:\OrCAD\OrCAD_16.5_Lite\tools\capture\208 project-pspicefiles\schematic1\a.sim ] 


 ****     CIRCUIT DESCRIPTION


******************************************************************************




** Creating circuit file "a.cir" 
** WARNING: THIS AUTOMATICALLY GENERATED FILE MAY BE OVERWRITTEN BY SUBSEQUENT SIMULATIONS

*Libraries: 
* Profile Libraries :
* Local Libraries :
* From [PSPICE NETLIST] section of C:\OrCAD\OrCAD_16.5_Lite\tools\pspice\PSpice.ini file:
.lib "nomd.lib" 

*Analysis directives: 
.TRAN  0 5ms 0 0.01ms 
.PROBE V(alias(*)) I(alias(*)) W(alias(*)) D(alias(*)) NOISE(alias(*)) 
.INC "..\SCHEMATIC1.net" 



**** INCLUDING SCHEMATIC1.net ****
* source 208 PROJECT
V_V1         N00314 0 11.96V
Q_Q1         N00390 N00385 0 Q2N2222
Q_Q2         N00473 N00390 0 Q2N3904
R_R1         N00309 N00314  1k TC=0,0 
R_R2         N00390 N00314  2.2k TC=0,0 
R_R3         N02870 N00314  330 TC=0,0 
R_Buzzer         N00473 N00314  100 TC=0,0 
D_D1         N00473 N00314 D1N4002 
X_U1         N00385 N00309 Sw_tClose PARAMS: tClose=0 ttran=1u Rclosed=0.01
+  Ropen=1Meg

**** RESUMING a.cir ****
.END

ERROR(ORPSIM-15141): Less than 2 connections at node N02870.
