
**** 04/29/26 11:57:36 ******* PSpice Lite (April 2011) ******* ID# 10813 ****

 ** Profile: "SCHEMATIC1-a"  [ C:\OrCAD\OrCAD_16.5_Lite\tools\capture\202pd1-pspicefiles\schematic1\a.sim ] 


 ****     CIRCUIT DESCRIPTION


******************************************************************************




** Creating circuit file "a.cir" 
** WARNING: THIS AUTOMATICALLY GENERATED FILE MAY BE OVERWRITTEN BY SUBSEQUENT SIMULATIONS

*Libraries: 
* Profile Libraries :
* Local Libraries :
* From [PSPICE NETLIST] section of C:\OrCAD\OrCAD_16.5_Lite\tools\pspice\PSpice.ini file:
.lib "nomd.lib" 

*Analysis directives: 
.TRAN  0 200ms 150ms 0.01ms 
.PROBE V(alias(*)) I(alias(*)) W(alias(*)) D(alias(*)) NOISE(alias(*)) 
.INC "..\SCHEMATIC1.net" 



**** INCLUDING SCHEMATIC1.net ****
* source 202PD1
V_V1         N00236 0  AC 0
+SIN 0 415 60.03Hz 0 0 0
R_R1         N00349 N00236  6.2 TC=0,0 
R_R2         N00353 N00236  3.4 TC=0,0 
R_R3         N00357 N00236  0.9 TC=0,0 
R_R4         N00361 N00236  7.2 TC=0,0 
R_R5         N00365 N00236  0.9 TC=0,0 
L_L1         N00349 0  10.61mH  
L_L2         N00353 0  14.32mH  
L_L3         N00357 0  1.59mH  
L_L4         N00361 0  21.22mH  
L_L5         N00365 0  4.77mH  
C_C1         0 N00236  2.13mF  TC=0,0 

**** RESUMING a.cir ****
.END

**** 04/29/26 11:57:36 ******* PSpice Lite (April 2011) ******* ID# 10813 ****

 ** Profile: "SCHEMATIC1-a"  [ C:\OrCAD\OrCAD_16.5_Lite\tools\capture\202pd1-pspicefiles\schematic1\a.sim ] 


 ****     INITIAL TRANSIENT SOLUTION       TEMPERATURE =   27.000 DEG C


******************************************************************************



 NODE   VOLTAGE     NODE   VOLTAGE     NODE   VOLTAGE     NODE   VOLTAGE


(N00236)    0.0000 (N00349)    0.0000 (N00353)    0.0000 (N00357)    0.0000     

(N00361)    0.0000 (N00365)    0.0000 




    VOLTAGE SOURCE CURRENTS
    NAME         CURRENT

    V_V1         0.000E+00

    TOTAL POWER DISSIPATION   0.00E+00  WATTS



          JOB CONCLUDED

**** 04/29/26 11:57:36 ******* PSpice Lite (April 2011) ******* ID# 10813 ****

 ** Profile: "SCHEMATIC1-a"  [ C:\OrCAD\OrCAD_16.5_Lite\tools\capture\202pd1-pspicefiles\schematic1\a.sim ] 


 ****     JOB STATISTICS SUMMARY


******************************************************************************



  Total job time (using Solver 1)   =         .14
